12380
  -OEChem-09202206333D

 26 25  0     0  0  0  0  0  0999 V2000
    5.5090    0.5949   -0.0432 I   0  0  0  0  0  0  0  0  0  0  0  0
   -0.0348    0.3235    0.0626 C   0  0  0  0  0  0  0  0  0  0  0  0
   -1.3442   -0.4704    0.0625 C   0  0  0  0  0  0  0  0  0  0  0  0
    1.2131   -0.5606    0.0062 C   0  0  0  0  0  0  0  0  0  0  0  0
   -2.5926    0.4143    0.0443 C   0  0  0  0  0  0  0  0  0  0  0  0
    2.4909    0.2824    0.0395 C   0  0  0  0  0  0  0  0  0  0  0  0
   -3.8664   -0.4288   -0.0287 C   0  0  0  0  0  0  0  0  0  0  0  0
    3.7354   -0.5991   -0.0576 C   0  0  0  0  0  0  0  0  0  0  0  0
   -5.1104    0.4437   -0.0856 C   0  0  0  0  0  0  0  0  0  0  0  0
    0.0019    0.9488    0.9633 H   0  0  0  0  0  0  0  0  0  0  0  0
   -0.0296    1.0059   -0.7964 H   0  0  0  0  0  0  0  0  0  0  0  0
   -1.3715   -1.1203    0.9459 H   0  0  0  0  0  0  0  0  0  0  0  0
   -1.3580   -1.1290   -0.8150 H   0  0  0  0  0  0  0  0  0  0  0  0
    1.1909   -1.1642   -0.9091 H   0  0  0  0  0  0  0  0  0  0  0  0
    1.2087   -1.2565    0.8539 H   0  0  0  0  0  0  0  0  0  0  0  0
   -2.6119    1.0413    0.9437 H   0  0  0  0  0  0  0  0  0  0  0  0
   -2.5493    1.0888   -0.8195 H   0  0  0  0  0  0  0  0  0  0  0  0
    2.5167    0.8691    0.9663 H   0  0  0  0  0  0  0  0  0  0  0  0
    2.4744    0.9986   -0.7917 H   0  0  0  0  0  0  0  0  0  0  0  0
   -3.8389   -1.0703   -0.9174 H   0  0  0  0  0  0  0  0  0  0  0  0
   -3.9269   -1.0875    0.8454 H   0  0  0  0  0  0  0  0  0  0  0  0
    3.7635   -1.3030    0.7816 H   0  0  0  0  0  0  0  0  0  0  0  0
    3.7059   -1.1911   -0.9792 H   0  0  0  0  0  0  0  0  0  0  0  0
   -6.0086   -0.1796   -0.1356 H   0  0  0  0  0  0  0  0  0  0  0  0
   -5.1855    1.0776    0.8037 H   0  0  0  0  0  0  0  0  0  0  0  0
   -5.0960    1.0905   -0.9688 H   0  0  0  0  0  0  0  0  0  0  0  0
  1  8  1  0  0  0  0
  2  3  1  0  0  0  0
  2  4  1  0  0  0  0
  2 10  1  0  0  0  0
  2 11  1  0  0  0  0
  3  5  1  0  0  0  0
  3 12  1  0  0  0  0
  3 13  1  0  0  0  0
  4  6  1  0  0  0  0
  4 14  1  0  0  0  0
  4 15  1  0  0  0  0
  5  7  1  0  0  0  0
  5 16  1  0  0  0  0
  5 17  1  0  0  0  0
  6  8  1  0  0  0  0
  6 18  1  0  0  0  0
  6 19  1  0  0  0  0
  7  9  1  0  0  0  0
  7 20  1  0  0  0  0
  7 21  1  0  0  0  0
  8 22  1  0  0  0  0
  8 23  1  0  0  0  0
  9 24  1  0  0  0  0
  9 25  1  0  0  0  0
  9 26  1  0  0  0  0
M  END
> <PUBCHEM_COMPOUND_CID>
12380

> <PUBCHEM_CONFORMER_RMSD>
0.6

> <PUBCHEM_CONFORMER_DIVERSEORDER>
1
129
34
30
176
37
105
107
86
26
14
154
19
5
180
147
8
120
41
177
152
64
89
45
124
48
63
122
10
66
25
6
172
11
165
169
158
15
79
54
71
119
40
179
51
61
13
31
111
65
117
3
76
163
113
94
49
39
70
36
162
73
12
175
53
4
137
50
2
125
118
23
56
149
153
32
35
160
127
143
67
90
166
27
47
69
7
106
99
131
132
83
145
148
141
58
22
44
60
77
87
97
59
116
9
140
135
75
168
43
62
178
20
72
170
29
156
100
173
46
21
17
128
108
159
55
109
93
174
161
171
96
38
139
101
104
103
134
123
42
92
68
74
133
88
16
121
138
33
24
82
110
151
102
95
146
136
98
115
150
80
130
164
142
57
85
84
114
91
78
52
155
112
28
167
18
81
144
126
157

> <PUBCHEM_MMFF94_PARTIAL_CHARGES>
2
1 -0.19
8 0.19

> <PUBCHEM_EFFECTIVE_ROTOR_COUNT>
6

> <PUBCHEM_PHARMACOPHORE_FEATURES>
4
1 1 hydrophobe
1 9 hydrophobe
3 2 4 6 hydrophobe
3 3 5 7 hydrophobe

> <PUBCHEM_HEAVY_ATOM_COUNT>
9

> <PUBCHEM_ATOM_DEF_STEREO_COUNT>
0

> <PUBCHEM_ATOM_UDEF_STEREO_COUNT>
0

> <PUBCHEM_BOND_DEF_STEREO_COUNT>
0

> <PUBCHEM_BOND_UDEF_STEREO_COUNT>
0

> <PUBCHEM_ISOTOPIC_ATOM_COUNT>
0

> <PUBCHEM_COMPONENT_COUNT>
1

> <PUBCHEM_CACTVS_TAUTO_COUNT>
1

> <PUBCHEM_CONFORMER_ID>
0000305C00000001

> <PUBCHEM_MMFF94_ENERGY>
-2.3478

> <PUBCHEM_FEATURE_SELFOVERLAP>
20.312

> <PUBCHEM_SHAPE_FINGERPRINT>
11062470 55 18259985972180971699
114248 4 18410856568250829682
14123238 8 18131350812829042044
14251718 22 18343582970848860910
15501527 16 18337392639455771757
17834072 33 18059572537789278796
17834076 25 18410573989462262176
18342897 14 18409448094109038144
20605781 2 18411417341405100120
20645477 70 18058735698188597582
20719005 15 18412545409895672904
20767249 13 10881399841839949688
20767249 213 18334013917100075604
20828058 44 12324248273229873120
22485316 2 18408884035885385818
23402539 116 18261105292382585431
23402655 69 18272647918211599261
366044 4 18333449850265578291
42788 4 18410012139199849196
59345606 91 18412543219367588328

> <PUBCHEM_SHAPE_MULTIPOLES>
197.15
12.98
0.88
0.66
1.08
0.02
0
2.39
-0.45
0.29
0
0.18
0.02
0.02

> <PUBCHEM_SHAPE_SELFOVERLAP>
324.757

> <PUBCHEM_SHAPE_VOLUME>
137.9

> <PUBCHEM_COORDINATE_TYPE>
2
5
10

$$$$
